&fv_core_nml
 @FV_HYDRO
 range_warn = .T.
 fv_debug = .F.
 @FV_SCHMIDT
 @FV_STRETCH_FAC
 @FV_TARGET_LON
 @FV_TARGET_LAT
 compute_coords_locally = .false.
/

&main_nml
/

&test_case_nml
  test_case = 13
/

&fms_io_nml
/

&fms_nml
  print_memory_usage=.true.
  domains_stack_size = 24000000
  clock_grain='MODULE',
  clock_flags='DETAILED',
/

&gfdl_cloud_microphysics_nml
/

